test/resources/V1_13/fourSubstationsNbk.xml
<?xml version="1.0" encoding="UTF-8"?>
<iidm:network xmlns:iidm="http://www.powsybl.org/schema/iidm/1_13" id="fourSubstations" caseDate="2017-06-25T17:43:00+01:00" forecastDistance="0" sourceFormat="test" minimumValidationLevel="STEADY_STATE_HYPOTHESIS">
    <iidm:substation id="S1">
        <iidm:voltageLevel id="S1VL1" nominalV="225" lowVoltageLimit="220" highVoltageLimit="240" topologyKind="NODE_BREAKER">
            <iidm:nodeBreakerTopology>
                <iidm:busbarSection id="S1VL1_BBS" name="S1VL1_BBS" node="0"/>
                <iidm:switch id="S1VL1_BBS_LD1_DISCONNECTOR" name="S1VL1_BBS_LD1_DISCONNECTOR" kind="DISCONNECTOR" retained="false" open="false" node1="0" node2="1"/>
                <iidm:switch id="S1VL1_LD1_BREAKER" name="S1VL1_LD1_BREAKER" kind="BREAKER" retained="true" open="false" node1="1" node2="2"/>
                <iidm:switch id="S1VL1_BBS_TWT_DISCONNECTOR" name="S1VL1_BBS_TWT_DISCONNECTOR" kind="DISCONNECTOR" retained="false" open="false" node1="0" node2="3"/>
                <iidm:switch id="S1VL1_TWT_BREAKER" name="S1VL1_TWT_BREAKER" kind="BREAKER" retained="true" open="false" node1="3" node2="4"/>
                <iidm:bus v="224.6139" angle="2.2822" nodes="0,1,2,3,4"/>
            </iidm:nodeBreakerTopology>
            <iidm:load id="LD1" loadType="UNDEFINED" p0="80" q0="10" node="2" p="80" q="10"/>
        </iidm:voltageLevel>
        <iidm:voltageLevel id="S1VL2" nominalV="400" lowVoltageLimit="390" highVoltageLimit="440" topologyKind="NODE_BREAKER">
            <iidm:nodeBreakerTopology>
                <iidm:busbarSection id="S1VL2_BBS1" name="S1VL2_BBS1" node="0"/>
                <iidm:busbarSection id="S1VL2_BBS2" name="S1VL2_BBS2" node="1"/>
                <iidm:switch id="S1VL2_BBS1_TWT_DISCONNECTOR" name="S1VL2_BBS1_TWT_DISCONNECTOR" kind="DISCONNECTOR" retained="false" open="false" node1="0" node2="2"/>
                <iidm:switch id="S1VL2_BBS2_TWT_DISCONNECTOR" name="S1VL2_BBS2_TWT_DISCONNECTOR" kind="DISCONNECTOR" retained="false" open="true" node1="1" node2="2"/>
                <iidm:switch id="S1VL2_TWT_BREAKER" name="S1VL2_TWT_BREAKER" kind="BREAKER" retained="true" open="false" node1="2" node2="3"/>
                <iidm:switch id="S1VL2_BBS1_VSC1_DISCONNECTOR" name="S1VL2_BBS1_VSC1_DISCONNECTOR" kind="DISCONNECTOR" retained="false" open="true" node1="0" node2="4"/>
                <iidm:switch id="S1VL2_BBS2_VSC1_DISCONNECTOR" name="S1VL2_BBS2_VSC1_DISCONNECTOR" kind="DISCONNECTOR" retained="false" open="false" node1="1" node2="4"/>
                <iidm:switch id="S1VL2_VSC1_BREAKER" name="S1VL2_VSC1_BREAKER" kind="BREAKER" retained="true" open="false" node1="4" node2="5"/>
                <iidm:switch id="S1VL2_BBS1_GH1_DISCONNECTOR" name="S1VL2_BBS1_GH1_DISCONNECTOR" kind="DISCONNECTOR" retained="false" open="false" node1="0" node2="6"/>
                <iidm:switch id="S1VL2_BBS1_GH2_DISCONNECTOR" name="S1VL2_BBS1_GH2_DISCONNECTOR" kind="DISCONNECTOR" retained="false" open="false" node1="0" node2="8"/>
                <iidm:switch id="S1VL2_BBS1_GH3_DISCONNECTOR" name="S1VL2_BBS1_GH3_DISCONNECTOR" kind="DISCONNECTOR" retained="false" open="false" node1="0" node2="10"/>
                <iidm:switch id="S1VL2_BBS2_GH1_DISCONNECTOR" name="S1VL2_BBS2_GH1_DISCONNECTOR" kind="DISCONNECTOR" retained="false" open="true" node1="1" node2="6"/>
                <iidm:switch id="S1VL2_BBS2_GH2_DISCONNECTOR" name="S1VL2_BBS2_GH2_DISCONNECTOR" kind="DISCONNECTOR" retained="false" open="true" node1="1" node2="8"/>
                <iidm:switch id="S1VL2_BBS2_GH3_DISCONNECTOR" name="S1VL2_BBS2_GH3_DISCONNECTOR" kind="DISCONNECTOR" retained="false" open="true" node1="1" node2="10"/>
                <iidm:switch id="S1VL2_GH1_BREAKER" name="S1VL2_GH1_BREAKER" kind="BREAKER" retained="true" open="false" node1="6" node2="7"/>
                <iidm:switch id="S1VL2_GH2_BREAKER" name="S1VL2_GH2_BREAKER" kind="BREAKER" retained="true" open="false" node1="8" node2="9"/>
                <iidm:switch id="S1VL2_GH3_BREAKER" name="S1VL2_GH3_BREAKER" kind="BREAKER" retained="true" open="false" node1="10" node2="11"/>
                <iidm:switch id="S1VL2_BBS1_LD2_DISCONNECTOR" name="S1VL2_BBS1_LD2_DISCONNECTOR" kind="DISCONNECTOR" retained="false" open="true" node1="0" node2="12"/>
                <iidm:switch id="S1VL2_BBS1_LD3_DISCONNECTOR" name="S1VL2_BBS1_LD3_DISCONNECTOR" kind="DISCONNECTOR" retained="false" open="true" node1="0" node2="14"/>
                <iidm:switch id="S1VL2_BBS1_LD4_DISCONNECTOR" name="S1VL2_BBS1_LD4_DISCONNECTOR" kind="DISCONNECTOR" retained="false" open="true" node1="0" node2="16"/>
                <iidm:switch id="S1VL2_BBS2_LD2_DISCONNECTOR" name="S1VL2_BBS2_LD2_DISCONNECTOR" kind="DISCONNECTOR" retained="false" open="false" node1="1" node2="12"/>
                <iidm:switch id="S1VL2_BBS2_LD3_DISCONNECTOR" name="S1VL2_BBS2_LD3_DISCONNECTOR" kind="DISCONNECTOR" retained="false" open="false" node1="1" node2="14"/>
                <iidm:switch id="S1VL2_BBS2_LD4_DISCONNECTOR" name="S1VL2_BBS2_LD4_DISCONNECTOR" kind="DISCONNECTOR" retained="false" open="false" node1="1" node2="16"/>
                <iidm:switch id="S1VL2_LD2_BREAKER" name="S1VL2_LD2_BREAKER" kind="BREAKER" retained="true" open="false" node1="12" node2="13"/>
                <iidm:switch id="S1VL2_LD3_BREAKER" name="S1VL2_LD3_BREAKER" kind="BREAKER" retained="true" open="false" node1="14" node2="15"/>
                <iidm:switch id="S1VL2_LD4_BREAKER" name="S1VL2_LD4_BREAKER" kind="BREAKER" retained="true" open="false" node1="16" node2="17"/>
                <iidm:switch id="S1VL2_BBS1_SHUNT_DISCONNECTOR" name="S1VL2_BBS1_SHUNT_DISCONNECTOR" kind="DISCONNECTOR" retained="false" open="false" node1="0" node2="18"/>
                <iidm:switch id="S1VL2_BBS2_SHUNT_DISCONNECTOR" name="S1VL2_BBS2_SHUNT_DISCONNECTOR" kind="DISCONNECTOR" retained="false" open="true" node1="1" node2="18"/>
                <iidm:switch id="S1VL2_SHUNT_BREAKER" name="S1VL2_SHUNT_BREAKER" kind="BREAKER" retained="true" open="false" node1="18" node2="19"/>
                <iidm:switch id="S1VL2_BBS1_LCC1_DISCONNECTOR" name="S1VL2_BBS1_LCC1_DISCONNECTOR" kind="DISCONNECTOR" retained="false" open="true" node1="0" node2="20"/>
                <iidm:switch id="S1VL2_BBS2_LCC1_DISCONNECTOR" name="S1VL2_BBS2_LCC1_DISCONNECTOR" kind="DISCONNECTOR" retained="false" open="false" node1="1" node2="20"/>
                <iidm:switch id="S1VL2_LCC1_BREAKER" name="S1VL2_LCC1_BREAKER" kind="BREAKER" retained="true" open="false" node1="20" node2="21"/>
                <iidm:switch id="S1VL2_BBS1_COUPLER_DISCONNECTOR" name="S1VL2_BBS1_COUPLER_DISCONNECTOR" kind="DISCONNECTOR" retained="false" open="false" node1="0" node2="22"/>
                <iidm:switch id="S1VL2_BBS2_COUPLER_DISCONNECTOR" name="S1VL2_BBS2_COUPLER_DISCONNECTOR" kind="DISCONNECTOR" retained="false" open="false" node1="1" node2="23"/>
                <iidm:switch id="S1VL2_COUPLER" name="S1VL2_COUPLER" kind="BREAKER" retained="true" open="false" node1="22" node2="23"/>
                <iidm:bus v="400" angle="0" nodes="0,1,2,3,4,5,6,7,8,9,10,11,12,13,14,15,16,17,18,19,20,21,22,23"/>
            </iidm:nodeBreakerTopology>
            <iidm:generator id="GH1" energySource="HYDRO" minP="0" maxP="100" voltageRegulatorOn="true" targetP="85.356999999999999" targetV="400" targetQ="512.08100000000002" node="7" p="-85.356999999999999" q="-512.08140000000003">
                <iidm:reactiveCapabilityCurve>
                    <iidm:point p="0" minQ="-769.29999999999995" maxQ="860"/>
                    <iidm:point p="100" minQ="-864.54999999999995" maxQ="946.25"/>
                </iidm:reactiveCapabilityCurve>
            </iidm:generator>
            <iidm:generator id="GH2" energySource="HYDRO" minP="0" maxP="200" voltageRegulatorOn="true" targetP="90" targetV="400" targetQ="512.08100000000002" node="9" p="-90" q="-512.08140000000003">
                <iidm:reactiveCapabilityCurve>
                    <iidm:point p="0" minQ="-556.79999999999995" maxQ="557.39999999999998"/>
                    <iidm:point p="200" minQ="-553.51400000000001" maxQ="536.39999999999998"/>
                </iidm:reactiveCapabilityCurve>
            </iidm:generator>
            <iidm:generator id="GH3" energySource="HYDRO" minP="0" maxP="200" voltageRegulatorOn="true" targetP="155.714" targetV="400" targetQ="512.08100000000002" node="11" p="-155.714" q="-512.08140000000003">
                <iidm:reactiveCapabilityCurve>
                    <iidm:point p="0" minQ="-680.60000000000002" maxQ="688.10000000000002"/>
                    <iidm:point p="200" minQ="-681.72500000000002" maxQ="716.3500004"/>
                </iidm:reactiveCapabilityCurve>
            </iidm:generator>
            <iidm:load id="LD2" loadType="UNDEFINED" p0="60" q0="5" node="13" p="60" q="5"/>
            <iidm:load id="LD3" loadType="UNDEFINED" p0="60" q0="5" node="15" p="60" q="5"/>
            <iidm:load id="LD4" loadType="UNDEFINED" p0="40" q0="5" node="17" p="40" q="5"/>
            <iidm:shunt id="SHUNT" sectionCount="1" voltageRegulatorOn="false" node="19" q="1920">
                <iidm:shuntLinearModel bPerSection="-0.012" maximumSectionCount="1"/>
            </iidm:shunt>
            <iidm:vscConverterStation id="VSC1" name="VSC1" voltageRegulatorOn="true" lossFactor="1.1000000000000001" voltageSetpoint="400" reactivePowerSetpoint="500" node="5" p="10.109999999999999" q="-512.08140000000003">
                <iidm:reactiveCapabilityCurve>
                    <iidm:point p="-100" minQ="-550" maxQ="570"/>
                    <iidm:point p="100" minQ="-550" maxQ="570"/>
                </iidm:reactiveCapabilityCurve>
            </iidm:vscConverterStation>
            <iidm:lccConverterStation id="LCC1" name="LCC1" lossFactor="1.1000000000000001" powerFactor="0.59999999999999998" node="21" p="80.879999999999995"/>
        </iidm:voltageLevel>
        <iidm:twoWindingsTransformer id="TWT" r="2" x="14.744999999999999" g="0" b="3.1999999999999999e-05" ratedU1="225" ratedU2="400" node1="4" voltageLevelId1="S1VL1" node2="3" voltageLevelId2="S1VL2" p1="-80" q1="-10" p2="80.0809" q2="5.4856999999999996" selectedOperationalLimitsGroupId1="DEFAULT" selectedOperationalLimitsGroupId2="DEFAULT">
            <iidm:phaseTapChanger lowTapPosition="0" tapPosition="15" regulationMode="FIXED_TAP">
                <iidm:terminalRef id="TWT" side="ONE"/>
                <iidm:step r="39.784730000000003" x="29.784725000000002" g="0" b="0" rho="1" alpha="-42.799999999999997"/>
                <iidm:step r="31.720244999999998" x="21.720241999999999" g="0" b="0" rho="1" alpha="-40.18"/>
                <iidm:step r="23.655736999999998" x="13.655735" g="0" b="0" rho="1" alpha="-37.539999999999999"/>
                <iidm:step r="16.263271" x="6.2632680000000001" g="0" b="0" rho="1" alpha="-34.899999999999999"/>
                <iidm:step r="9.5428470000000001" x="4.5428420000000003" g="0" b="0" rho="1" alpha="-32.259999999999998"/>
                <iidm:step r="3.4944772999999998" x="3.4944772999999998" g="0" b="0" rho="1" alpha="-29.600000000000001"/>
                <iidm:step r="-1.8818557" x="-1.8818527" g="0" b="0" rho="1" alpha="-26.940000000000001"/>
                <iidm:step r="-7.2581949999999997" x="-3.2581954" g="0" b="0" rho="1" alpha="-24.260000000000002"/>
                <iidm:step r="-11.962484999999999" x="-7.9624839999999999" g="0" b="0" rho="1" alpha="-21.579999999999998"/>
                <iidm:step r="-15.994745" x="-11.994745" g="0" b="0" rho="1" alpha="-18.899999999999999"/>
                <iidm:step r="-19.354952000000001" x="-15.354952000000001" g="0" b="0" rho="1" alpha="-16.219999999999999"/>
                <iidm:step r="-22.043126999999998" x="-22.043129" g="0" b="0" rho="1" alpha="-13.52"/>
                <iidm:step r="-24.731290000000001" x="-24.731286999999998" g="0" b="0" rho="1" alpha="-10.82"/>
                <iidm:step r="-26.747416999999999" x="-26.747416999999999" g="0" b="0" rho="1" alpha="-8.1199999999999992"/>
                <iidm:step r="-28.091502999999999" x="-28.091502999999999" g="0" b="0" rho="1" alpha="-5.4199999999999999"/>
                <iidm:step r="-28.763538" x="-28.763535999999998" g="0" b="0" rho="1" alpha="-2.7000000000000002"/>
                <iidm:step r="-28.763538" x="-28.763535999999998" g="0" b="0" rho="1" alpha="0"/>
                <iidm:step r="-28.763538" x="-28.763535999999998" g="0" b="0" rho="1" alpha="2.7000000000000002"/>
                <iidm:step r="-28.091502999999999" x="-28.091502999999999" g="0" b="0" rho="1" alpha="5.4199999999999999"/>
                <iidm:step r="-26.747416999999999" x="-26.747416999999999" g="0" b="0" rho="1" alpha="8.1199999999999992"/>
                <iidm:step r="-24.731290000000001" x="-24.731286999999998" g="0" b="0" rho="1" alpha="10.82"/>
                <iidm:step r="-22.043126999999998" x="-22.043129" g="0" b="0" rho="1" alpha="13.52"/>
                <iidm:step r="-19.354952000000001" x="-19.354952000000001" g="0" b="0" rho="1" alpha="16.219999999999999"/>
                <iidm:step r="-15.994745" x="-15.994745" g="0" b="0" rho="1" alpha="18.899999999999999"/>
                <iidm:step r="-11.962484999999999" x="-11.962484" g="0" b="0" rho="1" alpha="21.579999999999998"/>
                <iidm:step r="-7.2581949999999997" x="-7.2581954" g="0" b="0" rho="1" alpha="24.260000000000002"/>
                <iidm:step r="-1.8818557" x="-1.8818527" g="0" b="0" rho="1" alpha="26.940000000000001"/>
                <iidm:step r="3.4944772999999998" x="3.4944772999999998" g="0" b="0" rho="1" alpha="29.600000000000001"/>
                <iidm:step r="9.5428470000000001" x="9.5428420000000003" g="0" b="0" rho="1" alpha="32.259999999999998"/>
                <iidm:step r="16.263271" x="16.263268" g="0" b="0" rho="1" alpha="34.899999999999999"/>
                <iidm:step r="23.655736999999998" x="23.655735" g="0" b="0" rho="1" alpha="37.539999999999999"/>
                <iidm:step r="31.720244999999998" x="31.720241999999999" g="0" b="0" rho="1" alpha="40.18"/>
                <iidm:step r="39.784730000000003" x="39.784725000000002" g="0" b="0" rho="1" alpha="42.799999999999997"/>
            </iidm:phaseTapChanger>
            <iidm:operationalLimitsGroup1 id="DEFAULT">
                <iidm:currentLimits permanentLimit="1031"/>
            </iidm:operationalLimitsGroup1>
            <iidm:operationalLimitsGroup2 id="DEFAULT">
                <iidm:currentLimits permanentLimit="1031"/>
            </iidm:operationalLimitsGroup2>
        </iidm:twoWindingsTransformer>
    </iidm:substation>
    <iidm:substation id="S2">
        <iidm:voltageLevel id="S2VL1" nominalV="400" lowVoltageLimit="390" highVoltageLimit="440" topologyKind="NODE_BREAKER">
            <iidm:nodeBreakerTopology>
                <iidm:busbarSection id="S2VL1_BBS" name="S2VL1_BBS" node="0"/>
                <iidm:switch id="S2VL1_BBS_GTH1_DISCONNECTOR" name="S2VL1_BBS_GTH1_DISCONNECTOR" kind="DISCONNECTOR" retained="false" open="false" node1="0" node2="1"/>
                <iidm:switch id="S2VL1_GTH1_BREAKER" name="S2VL1_GTH1_BREAKER" kind="BREAKER" retained="true" open="false" node1="1" node2="2"/>
                <iidm:switch id="S2VL1_BBS_VSC2_DISCONNECTOR" name="S2VL1_BBS_VSC2_DISCONNECTOR" kind="DISCONNECTOR" retained="false" open="false" node1="0" node2="3"/>
                <iidm:switch id="S2VL1_VSC2_BREAKER" name="S2VL1_VSC2_BREAKER" kind="BREAKER" retained="true" open="false" node1="3" node2="4"/>
                <iidm:switch id="S2VL1_BBS_LINES2S3_DISCONNECTOR" name="S2VL1_BBS_LINES2S3_DISCONNECTOR" kind="DISCONNECTOR" retained="false" open="false" node1="0" node2="5"/>
                <iidm:switch id="S2VL1_LINES2S3_BREAKER" name="S2VL1_LINES2S3_BREAKER" kind="BREAKER" retained="true" open="false" node1="5" node2="6"/>
                <iidm:bus v="408.84699999999998" angle="0.73470000000000002" nodes="0,1,2,3,4,5,6"/>
            </iidm:nodeBreakerTopology>
            <iidm:generator id="GTH1" energySource="THERMAL" minP="0" maxP="100" voltageRegulatorOn="false" targetP="100" targetV="400" targetQ="70" node="2" p="-100" q="-70">
                <iidm:reactiveCapabilityCurve>
                    <iidm:point p="0" minQ="-76.799999999999997" maxQ="77.400000000000006"/>
                    <iidm:point p="100" minQ="-73.513999999999996" maxQ="76.400000000000006"/>
                </iidm:reactiveCapabilityCurve>
            </iidm:generator>
            <iidm:vscConverterStation id="VSC2" name="VSC2" voltageRegulatorOn="false" lossFactor="1.1000000000000001" voltageSetpoint="0" reactivePowerSetpoint="120" node="4" p="-9.8900000000000006" q="-120">
                <iidm:minMaxReactiveLimits minQ="-400" maxQ="500"/>
            </iidm:vscConverterStation>
        </iidm:voltageLevel>
    </iidm:substation>
    <iidm:substation id="S3">
        <iidm:voltageLevel id="S3VL1" nominalV="400" lowVoltageLimit="390" highVoltageLimit="440" topologyKind="NODE_BREAKER">
            <iidm:nodeBreakerTopology>
                <iidm:busbarSection id="S3VL1_BBS" name="S3VL1_BBS" node="0"/>
                <iidm:switch id="S3VL1_BBS_LINES2S3_DISCONNECTOR" name="S3VL1_BBS_LINES2S3_DISCONNECTOR" kind="DISCONNECTOR" retained="false" open="false" node1="0" node2="1"/>
                <iidm:switch id="S3VL1_LINES2S3_BREAKER" name="S3VL1_LINES2S3_BREAKER" kind="BREAKER" retained="true" open="false" node1="1" node2="2"/>
                <iidm:switch id="S3VL1_BBS_LD5_DISCONNECTOR" name="S3VL1_BBS_LD5_DISCONNECTOR" kind="DISCONNECTOR" retained="false" open="false" node1="0" node2="3"/>
                <iidm:switch id="S3VL1_LD5_BREAKER" name="S3VL1_LD5_BREAKER" kind="BREAKER" retained="true" open="false" node1="3" node2="4"/>
                <iidm:switch id="S3VL1_BBS_GTH2_DISCONNECTOR" name="S3VL1_BBS_GTH2_DISCONNECTOR" kind="DISCONNECTOR" retained="false" open="false" node1="0" node2="5"/>
                <iidm:switch id="S3VL1_GTH2_BREAKER" name="S3VL1_GTH2_BREAKER" kind="BREAKER" retained="true" open="false" node1="5" node2="6"/>
                <iidm:switch id="S3VL1_BBS_LINES3S4_DISCONNECTOR" name="S3VL1_BBS_LINES3S4_DISCONNECTOR" kind="DISCONNECTOR" retained="false" open="false" node1="0" node2="7"/>
                <iidm:switch id="S3VL1_LINES3S4_BREAKER" name="S3VL1_LINES3S4_BREAKER" kind="BREAKER" retained="true" open="false" node1="7" node2="8"/>
                <iidm:switch id="S3VL1_BBS_LCC2_DISCONNECTOR" name="S3VL1_BBS_LCC2_DISCONNECTOR" kind="DISCONNECTOR" retained="false" open="false" node1="0" node2="9"/>
                <iidm:switch id="S3VL1_LCC2_BREAKER" name="S3VL1_LCC2_BREAKER" kind="BREAKER" retained="true" open="false" node1="9" node2="10"/>
                <iidm:bus v="400" angle="0" nodes="0,1,2,3,4,5,6,7,8,9,10"/>
            </iidm:nodeBreakerTopology>
            <iidm:generator id="GTH2" energySource="THERMAL" minP="0" maxP="400" voltageRegulatorOn="true" targetP="250.99440000000001" targetV="400" targetQ="71.848699999999994" node="6" p="-250.99440000000001" q="71.848699999999994">
                <iidm:reactiveCapabilityCurve>
                    <iidm:point p="0" minQ="-169.30000000000001" maxQ="200"/>
                    <iidm:point p="400" minQ="-174.55000000000001" maxQ="176.25"/>
                </iidm:reactiveCapabilityCurve>
            </iidm:generator>
            <iidm:load id="LD5" loadType="UNDEFINED" p0="200" q0="5" node="4" p="200" q="5"/>
            <iidm:lccConverterStation id="LCC2" name="LCC2" lossFactor="1.1000000000000001" powerFactor="0.59999999999999998" node="10" p="-79.120000000000005"/>
        </iidm:voltageLevel>
    </iidm:substation>
    <iidm:substation id="S4">
        <iidm:voltageLevel id="S4VL1" nominalV="400" lowVoltageLimit="390" highVoltageLimit="440" topologyKind="NODE_BREAKER">
            <iidm:nodeBreakerTopology>
                <iidm:busbarSection id="S4VL1_BBS" name="S4VL1_BBS" node="0"/>
                <iidm:switch id="S4VL1_BBS_LINES3S4_DISCONNECTOR" name="S4VL1_BBS_LINES3S4_DISCONNECTOR" kind="DISCONNECTOR" retained="false" open="false" node1="0" node2="5"/>
                <iidm:switch id="S4VL1_LINES3S4_BREAKER" name="S4VL1_LINES3S4_BREAKER" kind="BREAKER" retained="true" open="false" node1="5" node2="6"/>
                <iidm:switch id="S4VL1_BBS_LD6_DISCONNECTOR" name="S4VL1_BBS_LD6_DISCONNECTOR" kind="DISCONNECTOR" retained="false" open="false" node1="0" node2="1"/>
                <iidm:switch id="S4VL1_LD6_BREAKER" name="S4VL1_LD6_BREAKER" kind="BREAKER" retained="true" open="false" node1="1" node2="2"/>
                <iidm:switch id="S4VL1_BBS_SVC_DISCONNECTOR" name="S4VL1_BBS_SVC_DISCONNECTOR" kind="DISCONNECTOR" retained="false" open="false" node1="0" node2="3"/>
                <iidm:switch id="S4VL1_SVC_BREAKER" name="S4VL1_SVC_BREAKER" kind="BREAKER" retained="true" open="false" node1="3" node2="4"/>
                <iidm:bus v="400" angle="-1.1258999999999999" nodes="0,1,2,3,4,5,6"/>
            </iidm:nodeBreakerTopology>
            <iidm:load id="LD6" loadType="UNDEFINED" p0="240" q0="10" node="2" p="240" q="10"/>
            <iidm:staticVarCompensator id="SVC" bMin="-0.050000000000000003" bMax="0.050000000000000003" voltageSetpoint="400" regulationMode="VOLTAGE" node="4" q="-12.541499999999999"/>
        </iidm:voltageLevel>
    </iidm:substation>
    <iidm:line id="LINE_S2S3" r="0.0099999990000000007" x="19.100000024" g1="0" b1="0" g2="0" b2="0" node1="6" voltageLevelId1="S2VL1" node2="2" voltageLevelId2="S3VL1" p1="109.88930000000001" q1="190.02289999999999" p2="-109.88639999999999" q2="-184.5171"/>
    <iidm:line id="LINE_S3S4" r="0.0099999990000000007" x="13.100000024" g1="0" b1="0" g2="0" b2="0" node1="8" voltageLevelId1="S3VL1" node2="6" voltageLevelId2="S4VL1" p1="240.00360000000001" q1="2.1751" p2="-240" q2="2.5415000000000001" selectedOperationalLimitsGroupId1="DEFAULT" selectedOperationalLimitsGroupId2="DEFAULT">
        <iidm:operationalLimitsGroup1 id="DEFAULT">
            <iidm:currentLimits permanentLimit="931"/>
        </iidm:operationalLimitsGroup1>
        <iidm:operationalLimitsGroup2 id="DEFAULT">
            <iidm:currentLimits permanentLimit="931">
                <iidm:temporaryLimit name="IST" value="1640" fictitious="true"/>
                <iidm:temporaryLimit name="LD71" acceptableDuration="60"/>
            </iidm:currentLimits>
        </iidm:operationalLimitsGroup2>
    </iidm:line>
    <iidm:hvdcLine id="HVDC1" name="HVDC1" r="1" nominalV="400" convertersMode="SIDE_1_RECTIFIER_SIDE_2_INVERTER" activePowerSetpoint="10" maxP="300" converterStation1="VSC1" converterStation2="VSC2"/>
    <iidm:hvdcLine id="HVDC2" name="HVDC2" r="1" nominalV="400" convertersMode="SIDE_1_RECTIFIER_SIDE_2_INVERTER" activePowerSetpoint="80" maxP="300" converterStation1="LCC1" converterStation2="LCC2"/>
</iidm:network>
